<?xml version="1.0" encoding="UTF-8"?>

<!-- generated on 2026-02-20 11:33:58.970438 by Eclipse SUMO generateContinuousRerouters.py v1.26.0
<configuration>
    <net-file value="ookayama.net.xml"/>
    <output-file value="continuous_rerouters.add.xml"/>
</configuration>
-->

<additional xmlns:xsi="http://www.w3.org/2001/XMLSchema-instance" xsi:noNamespaceSchemaLocation="http://sumo.dlr.de/xsd/additional_file.xsd">
    <route id="-188048107#1_-188048107#0" edges="-188048107#1 -188048107#0"/>
    <route id="-188048107#1_-188106457" edges="-188048107#1 -188106457"/>
    <route id="-188048107#1_188048107#1" edges="-188048107#1 188048107#1"/>
    <rerouter id="rr_-188048107#1" edges="-188048107#1">
        <interval begin="0" end="3600">
            <routeProbReroute id="-188048107#1_-188048107#0" probability="50.0"/>
            <routeProbReroute id="-188048107#1_-188106457" probability="30.0"/>
            <routeProbReroute id="-188048107#1_188048107#1" probability="0"/>
        </interval>
    </rerouter>
    <route id="188048107#0_-188048107#0" edges="188048107#0 -188048107#0"/>
    <route id="188048107#0_-188106457" edges="188048107#0 -188106457"/>
    <route id="188048107#0_188048107#1" edges="188048107#0 188048107#1"/>
    <rerouter id="rr_188048107#0" edges="188048107#0">
        <interval begin="0" end="3600">
            <routeProbReroute id="188048107#0_-188048107#0" probability="0"/>
            <routeProbReroute id="188048107#0_-188106457" probability="20.0"/>
            <routeProbReroute id="188048107#0_188048107#1" probability="50.0"/>
        </interval>
    </rerouter>
    <route id="188106457_-188048107#0" edges="188106457 -188048107#0"/>
    <route id="188106457_-188106457" edges="188106457 -188106457"/>
    <route id="188106457_188048107#1" edges="188106457 188048107#1"/>
    <rerouter id="rr_188106457" edges="188106457">
        <interval begin="0" end="3600">
            <routeProbReroute id="188106457_-188048107#0" probability="30.0"/>
            <routeProbReroute id="188106457_-188106457" probability="0"/>
            <routeProbReroute id="188106457_188048107#1" probability="20.0"/>
        </interval>
    </rerouter>
    <route id="-188048107#0_-188660020#5" edges="-188048107#0 -188660020#5"/>
    <route id="-188048107#0_188048107#0" edges="-188048107#0 188048107#0"/>
    <route id="-188048107#0_188660020#6" edges="-188048107#0 188660020#6"/>
    <rerouter id="rr_-188048107#0" edges="-188048107#0">
        <interval begin="0" end="3600">
            <routeProbReroute id="-188048107#0_-188660020#5" probability="30.0"/>
            <routeProbReroute id="-188048107#0_188048107#0" probability="0"/>
            <routeProbReroute id="-188048107#0_188660020#6" probability="20.0"/>
        </interval>
    </rerouter>
    <route id="-188660020#6_-188660020#5" edges="-188660020#6 -188660020#5"/>
    <route id="-188660020#6_188048107#0" edges="-188660020#6 188048107#0"/>
    <route id="-188660020#6_188660020#6" edges="-188660020#6 188660020#6"/>
    <rerouter id="rr_-188660020#6" edges="-188660020#6">
        <interval begin="0" end="3600">
            <routeProbReroute id="-188660020#6_-188660020#5" probability="50.0"/>
            <routeProbReroute id="-188660020#6_188048107#0" probability="30.0"/>
            <routeProbReroute id="-188660020#6_188660020#6" probability="0"/>
        </interval>
    </rerouter>
    <route id="188660020#5_-188660020#5" edges="188660020#5 -188660020#5"/>
    <route id="188660020#5_188048107#0" edges="188660020#5 188048107#0"/>
    <route id="188660020#5_188660020#6" edges="188660020#5 188660020#6"/>
    <rerouter id="rr_188660020#5" edges="188660020#5">
        <interval begin="0" end="3600">
            <routeProbReroute id="188660020#5_-188660020#5" probability="0"/>
            <routeProbReroute id="188660020#5_188048107#0" probability="20.0"/>
            <routeProbReroute id="188660020#5_188660020#6" probability="50.0"/>
        </interval>
    </rerouter>
    <route id="-188048107#3_-188048107#1" edges="-188048107#3 -188048107#1"/>
    <route id="-188048107#3_-90181669" edges="-188048107#3 -90181669"/>
    <route id="-188048107#3_188048107#3" edges="-188048107#3 188048107#3"/>
    <route id="-188048107#3_188170310" edges="-188048107#3 188170310"/>
    <rerouter id="rr_-188048107#3" edges="-188048107#3">
        <interval begin="0" end="3600">
            <routeProbReroute id="-188048107#3_-188048107#1" probability="50.0"/>
            <routeProbReroute id="-188048107#3_-90181669" probability="30.0"/>
            <routeProbReroute id="-188048107#3_188048107#3" probability="0"/>
            <routeProbReroute id="-188048107#3_188170310" probability="20.0"/>
        </interval>
    </rerouter>
    <route id="-188170311_-188048107#1" edges="-188170311 -188048107#1"/>
    <route id="-188170311_-90181669" edges="-188170311 -90181669"/>
    <route id="-188170311_188048107#3" edges="-188170311 188048107#3"/>
    <route id="-188170311_188170310" edges="-188170311 188170310"/>
    <rerouter id="rr_-188170311" edges="-188170311">
        <interval begin="0" end="3600">
            <routeProbReroute id="-188170311_-188048107#1" probability="20.0"/>
            <routeProbReroute id="-188170311_-90181669" probability="50.0"/>
            <routeProbReroute id="-188170311_188048107#3" probability="30.0"/>
            <routeProbReroute id="-188170311_188170310" probability="0"/>
        </interval>
    </rerouter>
    <route id="188048107#1_-188048107#1" edges="188048107#1 -188048107#1"/>
    <route id="188048107#1_-90181669" edges="188048107#1 -90181669"/>
    <route id="188048107#1_188048107#3" edges="188048107#1 188048107#3"/>
    <route id="188048107#1_188170310" edges="188048107#1 188170310"/>
    <rerouter id="rr_188048107#1" edges="188048107#1">
        <interval begin="0" end="3600">
            <routeProbReroute id="188048107#1_-188048107#1" probability="0"/>
            <routeProbReroute id="188048107#1_-90181669" probability="20.0"/>
            <routeProbReroute id="188048107#1_188048107#3" probability="50.0"/>
            <routeProbReroute id="188048107#1_188170310" probability="30.0"/>
        </interval>
    </rerouter>
    <route id="90181669_-188048107#1" edges="90181669 -188048107#1"/>
    <route id="90181669_-90181669" edges="90181669 -90181669"/>
    <route id="90181669_188048107#3" edges="90181669 188048107#3"/>
    <route id="90181669_188170310" edges="90181669 188170310"/>
    <rerouter id="rr_90181669" edges="90181669">
        <interval begin="0" end="3600">
            <routeProbReroute id="90181669_-188048107#1" probability="30.0"/>
            <routeProbReroute id="90181669_-90181669" probability="0"/>
            <routeProbReroute id="90181669_188048107#3" probability="20.0"/>
            <routeProbReroute id="90181669_188170310" probability="50.0"/>
        </interval>
    </rerouter>
    <route id="-188048107#4_-188048107#3" edges="-188048107#4 -188048107#3"/>
    <route id="-188048107#4_-188106440" edges="-188048107#4 -188106440"/>
    <route id="-188048107#4_188048107#4" edges="-188048107#4 188048107#4"/>
    <rerouter id="rr_-188048107#4" edges="-188048107#4">
        <interval begin="0" end="3600">
            <routeProbReroute id="-188048107#4_-188048107#3" probability="50.0"/>
            <routeProbReroute id="-188048107#4_-188106440" probability="30.0"/>
            <routeProbReroute id="-188048107#4_188048107#4" probability="0"/>
        </interval>
    </rerouter>
    <route id="188048107#3_-188048107#3" edges="188048107#3 -188048107#3"/>
    <route id="188048107#3_-188106440" edges="188048107#3 -188106440"/>
    <route id="188048107#3_188048107#4" edges="188048107#3 188048107#4"/>
    <rerouter id="rr_188048107#3" edges="188048107#3">
        <interval begin="0" end="3600">
            <routeProbReroute id="188048107#3_-188048107#3" probability="0"/>
            <routeProbReroute id="188048107#3_-188106440" probability="20.0"/>
            <routeProbReroute id="188048107#3_188048107#4" probability="50.0"/>
        </interval>
    </rerouter>
    <route id="188106440_-188048107#3" edges="188106440 -188048107#3"/>
    <route id="188106440_-188106440" edges="188106440 -188106440"/>
    <route id="188106440_188048107#4" edges="188106440 188048107#4"/>
    <rerouter id="rr_188106440" edges="188106440">
        <interval begin="0" end="3600">
            <routeProbReroute id="188106440_-188048107#3" probability="30.0"/>
            <routeProbReroute id="188106440_-188106440" probability="0"/>
            <routeProbReroute id="188106440_188048107#4" probability="20.0"/>
        </interval>
    </rerouter>
    <route id="-188106458#1_-188048107#4" edges="-188106458#1 -188048107#4"/>
    <route id="-188106458#1_-188106458#0" edges="-188106458#1 -188106458#0"/>
    <route id="-188106458#1_188106458#1" edges="-188106458#1 188106458#1"/>
    <rerouter id="rr_-188106458#1" edges="-188106458#1">
        <interval begin="0" end="3600">
            <routeProbReroute id="-188106458#1_-188048107#4" probability="30.0"/>
            <routeProbReroute id="-188106458#1_-188106458#0" probability="50.0"/>
            <routeProbReroute id="-188106458#1_188106458#1" probability="0"/>
        </interval>
    </rerouter>
    <route id="188048107#4_-188048107#4" edges="188048107#4 -188048107#4"/>
    <route id="188048107#4_-188106458#0" edges="188048107#4 -188106458#0"/>
    <route id="188048107#4_188106458#1" edges="188048107#4 188106458#1"/>
    <rerouter id="rr_188048107#4" edges="188048107#4">
        <interval begin="0" end="3600">
            <routeProbReroute id="188048107#4_-188048107#4" probability="0"/>
            <routeProbReroute id="188048107#4_-188106458#0" probability="30.0"/>
            <routeProbReroute id="188048107#4_188106458#1" probability="20.0"/>
        </interval>
    </rerouter>
    <route id="188106458#0_-188048107#4" edges="188106458#0 -188048107#4"/>
    <route id="188106458#0_-188106458#0" edges="188106458#0 -188106458#0"/>
    <route id="188106458#0_188106458#1" edges="188106458#0 188106458#1"/>
    <rerouter id="rr_188106458#0" edges="188106458#0">
        <interval begin="0" end="3600">
            <routeProbReroute id="188106458#0_-188048107#4" probability="20.0"/>
            <routeProbReroute id="188106458#0_-188106458#0" probability="0"/>
            <routeProbReroute id="188106458#0_188106458#1" probability="50.0"/>
        </interval>
    </rerouter>
    <route id="-188106440_-188660020#1" edges="-188106440 -188660020#1"/>
    <route id="-188106440_188106440" edges="-188106440 188106440"/>
    <route id="-188106440_188660020#2" edges="-188106440 188660020#2"/>
    <rerouter id="rr_-188106440" edges="-188106440">
        <interval begin="0" end="3600">
            <routeProbReroute id="-188106440_-188660020#1" probability="30.0"/>
            <routeProbReroute id="-188106440_188106440" probability="0"/>
            <routeProbReroute id="-188106440_188660020#2" probability="20.0"/>
        </interval>
    </rerouter>
    <route id="-188660020#2_-188660020#1" edges="-188660020#2 -188660020#1"/>
    <route id="-188660020#2_188106440" edges="-188660020#2 188106440"/>
    <route id="-188660020#2_188660020#2" edges="-188660020#2 188660020#2"/>
    <rerouter id="rr_-188660020#2" edges="-188660020#2">
        <interval begin="0" end="3600">
            <routeProbReroute id="-188660020#2_-188660020#1" probability="50.0"/>
            <routeProbReroute id="-188660020#2_188106440" probability="30.0"/>
            <routeProbReroute id="-188660020#2_188660020#2" probability="0"/>
        </interval>
    </rerouter>
    <route id="188660020#1_-188660020#1" edges="188660020#1 -188660020#1"/>
    <route id="188660020#1_188106440" edges="188660020#1 188106440"/>
    <route id="188660020#1_188660020#2" edges="188660020#1 188660020#2"/>
    <rerouter id="rr_188660020#1" edges="188660020#1">
        <interval begin="0" end="3600">
            <routeProbReroute id="188660020#1_-188660020#1" probability="0"/>
            <routeProbReroute id="188660020#1_188106440" probability="20.0"/>
            <routeProbReroute id="188660020#1_188660020#2" probability="50.0"/>
        </interval>
    </rerouter>
    <route id="-188106457_-188660020#3" edges="-188106457 -188660020#3"/>
    <route id="-188106457_188106457" edges="-188106457 188106457"/>
    <route id="-188106457_188660020#4" edges="-188106457 188660020#4"/>
    <rerouter id="rr_-188106457" edges="-188106457">
        <interval begin="0" end="3600">
            <routeProbReroute id="-188106457_-188660020#3" probability="30.0"/>
            <routeProbReroute id="-188106457_188106457" probability="0"/>
            <routeProbReroute id="-188106457_188660020#4" probability="20.0"/>
        </interval>
    </rerouter>
    <route id="-188660020#4_-188660020#3" edges="-188660020#4 -188660020#3"/>
    <route id="-188660020#4_188106457" edges="-188660020#4 188106457"/>
    <route id="-188660020#4_188660020#4" edges="-188660020#4 188660020#4"/>
    <rerouter id="rr_-188660020#4" edges="-188660020#4">
        <interval begin="0" end="3600">
            <routeProbReroute id="-188660020#4_-188660020#3" probability="50.0"/>
            <routeProbReroute id="-188660020#4_188106457" probability="30.0"/>
            <routeProbReroute id="-188660020#4_188660020#4" probability="0"/>
        </interval>
    </rerouter>
    <route id="188660020#3_-188660020#3" edges="188660020#3 -188660020#3"/>
    <route id="188660020#3_188106457" edges="188660020#3 188106457"/>
    <route id="188660020#3_188660020#4" edges="188660020#3 188660020#4"/>
    <rerouter id="rr_188660020#3" edges="188660020#3">
        <interval begin="0" end="3600">
            <routeProbReroute id="188660020#3_-188660020#3" probability="0"/>
            <routeProbReroute id="188660020#3_188106457" probability="20.0"/>
            <routeProbReroute id="188660020#3_188660020#4" probability="50.0"/>
        </interval>
    </rerouter>
    <route id="-188106458#0_-188118875#0" edges="-188106458#0 -188118875#0"/>
    <route id="-188106458#0_188106458#0" edges="-188106458#0 188106458#0"/>
    <route id="-188106458#0_188118875#1" edges="-188106458#0 188118875#1"/>
    <rerouter id="rr_-188106458#0" edges="-188106458#0">
        <interval begin="0" end="3600">
            <routeProbReroute id="-188106458#0_-188118875#0" probability="20.0"/>
            <routeProbReroute id="-188106458#0_188106458#0" probability="0"/>
            <routeProbReroute id="-188106458#0_188118875#1" probability="30.0"/>
        </interval>
    </rerouter>
    <route id="-188118875#1_-188118875#0" edges="-188118875#1 -188118875#0"/>
    <route id="-188118875#1_188106458#0" edges="-188118875#1 188106458#0"/>
    <route id="-188118875#1_188118875#1" edges="-188118875#1 188118875#1"/>
    <rerouter id="rr_-188118875#1" edges="-188118875#1">
        <interval begin="0" end="3600">
            <routeProbReroute id="-188118875#1_-188118875#0" probability="50.0"/>
            <routeProbReroute id="-188118875#1_188106458#0" probability="20.0"/>
            <routeProbReroute id="-188118875#1_188118875#1" probability="0"/>
        </interval>
    </rerouter>
    <route id="188118875#0_-188118875#0" edges="188118875#0 -188118875#0"/>
    <route id="188118875#0_188106458#0" edges="188118875#0 188106458#0"/>
    <route id="188118875#0_188118875#1" edges="188118875#0 188118875#1"/>
    <rerouter id="rr_188118875#0" edges="188118875#0">
        <interval begin="0" end="3600">
            <routeProbReroute id="188118875#0_-188118875#0" probability="0"/>
            <routeProbReroute id="188118875#0_188106458#0" probability="30.0"/>
            <routeProbReroute id="188118875#0_188118875#1" probability="50.0"/>
        </interval>
    </rerouter>
    <route id="-188660020#1_-188106458#1" edges="-188660020#1 -188106458#1"/>
    <route id="-188660020#1_188660020#1" edges="-188660020#1 188660020#1"/>
    <route id="-188660020#1_85970004" edges="-188660020#1 85970004"/>
    <rerouter id="rr_-188660020#1" edges="-188660020#1">
        <interval begin="0" end="3600">
            <routeProbReroute id="-188660020#1_-188106458#1" probability="30.0"/>
            <routeProbReroute id="-188660020#1_188660020#1" probability="0"/>
            <routeProbReroute id="-188660020#1_85970004" probability="50.0"/>
        </interval>
    </rerouter>
    <route id="188106458#1_-188106458#1" edges="188106458#1 -188106458#1"/>
    <route id="188106458#1_188660020#1" edges="188106458#1 188660020#1"/>
    <route id="188106458#1_85970004" edges="188106458#1 85970004"/>
    <rerouter id="rr_188106458#1" edges="188106458#1">
        <interval begin="0" end="3600">
            <routeProbReroute id="188106458#1_-188106458#1" probability="0"/>
            <routeProbReroute id="188106458#1_188660020#1" probability="20.0"/>
            <routeProbReroute id="188106458#1_85970004" probability="30.0"/>
        </interval>
    </rerouter>
    <route id="-188118875#0_-85970009#4" edges="-188118875#0 -85970009#4"/>
    <route id="-188118875#0_188118875#0" edges="-188118875#0 188118875#0"/>
    <rerouter id="rr_-188118875#0" edges="-188118875#0">
        <interval begin="0" end="3600">
            <routeProbReroute id="-188118875#0_-85970009#4" probability="20.0"/>
            <routeProbReroute id="-188118875#0_188118875#0" probability="0"/>
        </interval>
    </rerouter>
    <route id="188118873_-85970009#4" edges="188118873 -85970009#4"/>
    <route id="188118873_188118875#0" edges="188118873 188118875#0"/>
    <rerouter id="rr_188118873" edges="188118873">
        <interval begin="0" end="3600">
            <routeProbReroute id="188118873_-85970009#4" probability="30.0"/>
            <routeProbReroute id="188118873_188118875#0" probability="50.0"/>
        </interval>
    </rerouter>
    <route id="85970009#4_-85970009#4" edges="85970009#4 -85970009#4"/>
    <route id="85970009#4_188118875#0" edges="85970009#4 188118875#0"/>
    <rerouter id="rr_85970009#4" edges="85970009#4">
        <interval begin="0" end="3600">
            <routeProbReroute id="85970009#4_-85970009#4" probability="0"/>
            <routeProbReroute id="85970009#4_188118875#0" probability="30.0"/>
        </interval>
    </rerouter>
    <route id="-188118875#2_-188118875#1" edges="-188118875#2 -188118875#1"/>
    <route id="-188118875#2_-188170311" edges="-188118875#2 -188170311"/>
    <route id="-188118875#2_188118875#2" edges="-188118875#2 188118875#2"/>
    <rerouter id="rr_-188118875#2" edges="-188118875#2">
        <interval begin="0" end="3600">
            <routeProbReroute id="-188118875#2_-188118875#1" probability="50.0"/>
            <routeProbReroute id="-188118875#2_-188170311" probability="20.0"/>
            <routeProbReroute id="-188118875#2_188118875#2" probability="0"/>
        </interval>
    </rerouter>
    <route id="188118875#1_-188118875#1" edges="188118875#1 -188118875#1"/>
    <route id="188118875#1_-188170311" edges="188118875#1 -188170311"/>
    <route id="188118875#1_188118875#2" edges="188118875#1 188118875#2"/>
    <rerouter id="rr_188118875#1" edges="188118875#1">
        <interval begin="0" end="3600">
            <routeProbReroute id="188118875#1_-188118875#1" probability="0"/>
            <routeProbReroute id="188118875#1_-188170311" probability="30.0"/>
            <routeProbReroute id="188118875#1_188118875#2" probability="50.0"/>
        </interval>
    </rerouter>
    <route id="188170310_-188118875#1" edges="188170310 -188118875#1"/>
    <route id="188170310_-188170311" edges="188170310 -188170311"/>
    <route id="188170310_188118875#2" edges="188170310 188118875#2"/>
    <rerouter id="rr_188170310" edges="188170310">
        <interval begin="0" end="3600">
            <routeProbReroute id="188170310_-188118875#1" probability="20.0"/>
            <routeProbReroute id="188170310_-188170311" probability="0"/>
            <routeProbReroute id="188170310_188118875#2" probability="30.0"/>
        </interval>
    </rerouter>
    <route id="188118875#2_-188118875#2" edges="188118875#2 -188118875#2"/>
    <route id="188118875#2_-188660020#6" edges="188118875#2 -188660020#6"/>
    <rerouter id="rr_188118875#2" edges="188118875#2">
        <interval begin="0" end="3600">
            <routeProbReroute id="188118875#2_-188118875#2" probability="0"/>
            <routeProbReroute id="188118875#2_-188660020#6" probability="30.0"/>
        </interval>
    </rerouter>
    <route id="188660020#6_-188118875#2" edges="188660020#6 -188118875#2"/>
    <route id="188660020#6_-188660020#6" edges="188660020#6 -188660020#6"/>
    <rerouter id="rr_188660020#6" edges="188660020#6">
        <interval begin="0" end="3600">
            <routeProbReroute id="188660020#6_-188118875#2" probability="20.0"/>
            <routeProbReroute id="188660020#6_-188660020#6" probability="0"/>
        </interval>
    </rerouter>
    <route id="188051766_-188194446" edges="188051766 -188194446 28013465"/>
    <route id="188051766_188118873" edges="188051766 188118873"/>
    <rerouter id="rr_188051766" edges="188051766">
        <interval begin="0" end="3600">
            <routeProbReroute id="188051766_-188194446" probability="20.0"/>
            <routeProbReroute id="188051766_188118873" probability="30.0"/>
        </interval>
    </rerouter>
    <route id="28013465_-188194446" edges="28013465 -188194446 28013465"/>
    <route id="28013465_188118873" edges="28013465 188118873"/>
    <rerouter id="rr_28013465" edges="28013465">
        <interval begin="0" end="3600">
            <routeProbReroute id="28013465_-188194446" probability="0"/>
            <routeProbReroute id="28013465_188118873" probability="50.0"/>
        </interval>
    </rerouter>
    <route id="-188660020#3_-188660020#2" edges="-188660020#3 -188660020#2"/>
    <route id="-188660020#3_188660020#3" edges="-188660020#3 188660020#3"/>
    <route id="-188660020#3_90181669" edges="-188660020#3 90181669"/>
    <rerouter id="rr_-188660020#3" edges="-188660020#3">
        <interval begin="0" end="3600">
            <routeProbReroute id="-188660020#3_-188660020#2" probability="50.0"/>
            <routeProbReroute id="-188660020#3_188660020#3" probability="0"/>
            <routeProbReroute id="-188660020#3_90181669" probability="30.0"/>
        </interval>
    </rerouter>
    <route id="-90181669_-188660020#2" edges="-90181669 -188660020#2"/>
    <route id="-90181669_188660020#3" edges="-90181669 188660020#3"/>
    <route id="-90181669_90181669" edges="-90181669 90181669"/>
    <rerouter id="rr_-90181669" edges="-90181669">
        <interval begin="0" end="3600">
            <routeProbReroute id="-90181669_-188660020#2" probability="30.0"/>
            <routeProbReroute id="-90181669_188660020#3" probability="20.0"/>
            <routeProbReroute id="-90181669_90181669" probability="0"/>
        </interval>
    </rerouter>
    <route id="188660020#2_-188660020#2" edges="188660020#2 -188660020#2"/>
    <route id="188660020#2_188660020#3" edges="188660020#2 188660020#3"/>
    <route id="188660020#2_90181669" edges="188660020#2 90181669"/>
    <rerouter id="rr_188660020#2" edges="188660020#2">
        <interval begin="0" end="3600">
            <routeProbReroute id="188660020#2_-188660020#2" probability="0"/>
            <routeProbReroute id="188660020#2_188660020#3" probability="50.0"/>
            <routeProbReroute id="188660020#2_90181669" probability="20.0"/>
        </interval>
    </rerouter>
    <route id="-188660020#5_-188660020#4" edges="-188660020#5 -188660020#4"/>
    <route id="-188660020#5_188660020#5" edges="-188660020#5 188660020#5"/>
    <rerouter id="rr_-188660020#5" edges="-188660020#5">
        <interval begin="0" end="3600">
            <routeProbReroute id="-188660020#5_-188660020#4" probability="30.0"/>
            <routeProbReroute id="-188660020#5_188660020#5" probability="0"/>
        </interval>
    </rerouter>
    <route id="188660020#4_-188660020#4" edges="188660020#4 -188660020#4"/>
    <route id="188660020#4_188660020#5" edges="188660020#4 188660020#5"/>
    <rerouter id="rr_188660020#4" edges="188660020#4">
        <interval begin="0" end="3600">
            <routeProbReroute id="188660020#4_-188660020#4" probability="0"/>
            <routeProbReroute id="188660020#4_188660020#5" probability="20.0"/>
        </interval>
    </rerouter>
    <route id="85949608#1_-85949608#1" edges="85949608#1 -85949608#1"/>
    <route id="85949608#1_-85970094" edges="85949608#1 -85970094 85970094"/>
    <rerouter id="rr_85949608#1" edges="85949608#1">
        <interval begin="0" end="3600">
            <routeProbReroute id="85949608#1_-85949608#1" probability="0"/>
            <routeProbReroute id="85949608#1_-85970094" probability="20.0"/>
        </interval>
    </rerouter>
    <route id="85970004_-85949608#1" edges="85970004 -85949608#1"/>
    <route id="85970004_-85970094" edges="85970004 -85970094 85970094"/>
    <rerouter id="rr_85970004" edges="85970004">
        <interval begin="0" end="3600">
            <routeProbReroute id="85970004_-85949608#1" probability="50.0"/>
            <routeProbReroute id="85970004_-85970094" probability="30.0"/>
        </interval>
    </rerouter>
    <route id="85970094_-85949608#1" edges="85970094 -85949608#1"/>
    <route id="85970094_-85970094" edges="85970094 -85970094 85970094"/>
    <rerouter id="rr_85970094" edges="85970094">
        <interval begin="0" end="3600">
            <routeProbReroute id="85970094_-85949608#1" probability="30.0"/>
            <routeProbReroute id="85970094_-85970094" probability="0"/>
        </interval>
    </rerouter>
    <route id="-85949608#1_85949608#1" edges="-85949608#1 85949608#1"/>
    <route id="-85949608#1_85970009#1" edges="-85949608#1 85970009#1"/>
    <rerouter id="rr_-85949608#1" edges="-85949608#1">
        <interval begin="0" end="3600">
            <routeProbReroute id="-85949608#1_85949608#1" probability="0"/>
            <routeProbReroute id="-85949608#1_85970009#1" probability="30.0"/>
        </interval>
    </rerouter>
    <route id="-85970009#1_85949608#1" edges="-85970009#1 85949608#1"/>
    <route id="-85970009#1_85970009#1" edges="-85970009#1 85970009#1"/>
    <rerouter id="rr_-85970009#1" edges="-85970009#1">
        <interval begin="0" end="3600">
            <routeProbReroute id="-85970009#1_85949608#1" probability="20.0"/>
            <routeProbReroute id="-85970009#1_85970009#1" probability="0"/>
        </interval>
    </rerouter>
    <route id="-85970009#2_-85970009#1" edges="-85970009#2 -85970009#1"/>
    <route id="-85970009#2_85970009#2" edges="-85970009#2 85970009#2"/>
    <rerouter id="rr_-85970009#2" edges="-85970009#2">
        <interval begin="0" end="3600">
            <routeProbReroute id="-85970009#2_-85970009#1" probability="50.0"/>
            <routeProbReroute id="-85970009#2_85970009#2" probability="0"/>
        </interval>
    </rerouter>
    <route id="85970009#1_-85970009#1" edges="85970009#1 -85970009#1"/>
    <route id="85970009#1_85970009#2" edges="85970009#1 85970009#2"/>
    <rerouter id="rr_85970009#1" edges="85970009#1">
        <interval begin="0" end="3600">
            <routeProbReroute id="85970009#1_-85970009#1" probability="0"/>
            <routeProbReroute id="85970009#1_85970009#2" probability="50.0"/>
        </interval>
    </rerouter>
    <route id="-85970009#3_-85970009#2" edges="-85970009#3 -85970009#2"/>
    <route id="-85970009#3_188051766" edges="-85970009#3 188051766"/>
    <route id="-85970009#3_85970009#3" edges="-85970009#3 85970009#3"/>
    <rerouter id="rr_-85970009#3" edges="-85970009#3">
        <interval begin="0" end="3600">
            <routeProbReroute id="-85970009#3_-85970009#2" probability="50.0"/>
            <routeProbReroute id="-85970009#3_188051766" probability="30.0"/>
            <routeProbReroute id="-85970009#3_85970009#3" probability="0"/>
        </interval>
    </rerouter>
    <route id="85970009#2_-85970009#2" edges="85970009#2 -85970009#2"/>
    <route id="85970009#2_188051766" edges="85970009#2 188051766"/>
    <route id="85970009#2_85970009#3" edges="85970009#2 85970009#3"/>
    <rerouter id="rr_85970009#2" edges="85970009#2">
        <interval begin="0" end="3600">
            <routeProbReroute id="85970009#2_-85970009#2" probability="0"/>
            <routeProbReroute id="85970009#2_188051766" probability="20.0"/>
            <routeProbReroute id="85970009#2_85970009#3" probability="50.0"/>
        </interval>
    </rerouter>
    <route id="-85970009#4_-85970009#3" edges="-85970009#4 -85970009#3"/>
    <route id="-85970009#4_85970009#4" edges="-85970009#4 85970009#4"/>
    <rerouter id="rr_-85970009#4" edges="-85970009#4">
        <interval begin="0" end="3600">
            <routeProbReroute id="-85970009#4_-85970009#3" probability="50.0"/>
            <routeProbReroute id="-85970009#4_85970009#4" probability="0"/>
        </interval>
    </rerouter>
    <route id="85970009#3_-85970009#3" edges="85970009#3 -85970009#3"/>
    <route id="85970009#3_85970009#4" edges="85970009#3 85970009#4"/>
    <rerouter id="rr_85970009#3" edges="85970009#3">
        <interval begin="0" end="3600">
            <routeProbReroute id="85970009#3_-85970009#3" probability="0"/>
            <routeProbReroute id="85970009#3_85970009#4" probability="50.0"/>
        </interval>
    </rerouter>
</additional>
