<?xml version="1.0" encoding="UTF-8"?>

<!-- generated on 2026-02-20T11:20:27.793089+01:00 by Eclipse SUMO netedit 1.26.0
<neteditConfiguration xmlns:xsi="http://www.w3.org/2001/XMLSchema-instance" xsi:noNamespaceSchemaLocation="http://sumo.dlr.de/xsd/neteditConfiguration.xsd">

    <input>
        <sumocfg-file value="/home/rpegurri/Desktop/ookayama_random_trips/ookayama.sumocfg"/>
        <additional-files value="/home/rpegurri/Desktop/ookayama_random_trips/rerouting.add.xml"/>
        <route-files value="/home/rpegurri/Desktop/ookayama_random_trips/routes.rou.xml"/>
        <sumo-net-file value="/home/rpegurri/Desktop/ookayama_random_trips/ookayama.net.xml"/>
    </input>

    <output>
        <output-file value="/home/rpegurri/Desktop/ookayama_random_trips/ookayama.net.xml"/>
    </output>

    <processing>
        <geometry.min-radius.fix.railways value="false"/>
        <geometry.avoid-overlap value="false"/>
        <geometry.max-grade.fix value="false"/>
        <offset.disable-normalization value="true"/>
        <lefthand value="1"/>
    </processing>

    <junctions>
        <no-turnarounds value="true"/>
        <junctions.corner-detail value="5"/>
        <junctions.limit-turn-speed value="5.50"/>
        <rectangular-lane-cut value="0"/>
    </junctions>

    <pedestrian>
        <walkingareas value="0"/>
    </pedestrian>

</neteditConfiguration>
-->

<net version="1.20" junctionCornerDetail="5" lefthand="true" limitTurnSpeed="5.50" avoidOverlap="0" xmlns:xsi="http://www.w3.org/2001/XMLSchema-instance" xsi:noNamespaceSchemaLocation="http://sumo.dlr.de/xsd/net_file.xsd">

    <location netOffset="-380514.28,-3940276.06" convBoundary="182.96,0.00,1441.07,855.98" origBoundary="139.680908,35.599072,139.696762,35.607202" projParameter="+proj=utm +zone=54 +ellps=WGS84 +datum=WGS84 +units=m +no_defs"/>

    <type id="highway.service" priority="1" numLanes="1" speed="5.56" disallow="tram rail_urban rail rail_electric rail_fast ship container cable_car subway aircraft wheelchair scooter drone" oneway="0"/>

    <edge id=":1045523881_0" function="internal">
        <lane id=":1045523881_0_0" index="0" disallow="tram rail_urban rail rail_electric rail_fast ship container cable_car subway aircraft wheelchair scooter drone" speed="5.56" length="17.05" shape="186.41,495.60 185.58,499.55 183.80,503.76 182.16,507.95 181.76,511.87"/>
    </edge>
    <edge id=":1045523881_1" function="internal">
        <lane id=":1045523881_1_0" index="0" disallow="tram rail_urban rail rail_electric rail_fast ship container cable_car subway aircraft wheelchair scooter drone" speed="5.56" length="15.11" shape="186.41,495.60 186.91,500.54 188.39,503.91 190.83,505.71 194.26,505.93"/>
    </edge>
    <edge id=":1045523881_2" function="internal">
        <lane id=":1045523881_2_0" index="0" disallow="tram rail_urban rail rail_electric rail_fast ship container cable_car subway aircraft wheelchair scooter drone" speed="3.81" length="5.32" shape="186.41,495.60 186.57,497.23 187.15,498.06 188.17,498.09 189.62,497.32"/>
    </edge>
    <edge id=":1045523881_3" function="internal">
        <lane id=":1045523881_3_0" index="0" disallow="tram rail_urban rail rail_electric rail_fast ship container cable_car subway aircraft wheelchair scooter drone" speed="5.56" length="8.00" shape="193.80,502.76 191.97,502.65 190.67,501.70 189.88,499.93 189.62,497.32"/>
    </edge>
    <edge id=":1045523881_4" function="internal">
        <lane id=":1045523881_4_0" index="0" disallow="tram rail_urban rail rail_electric rail_fast ship container cable_car subway aircraft wheelchair scooter drone" speed="5.56" length="16.84" shape="193.80,502.76 188.11,504.05 184.20,505.99 182.09,508.60 181.76,511.87"/>
    </edge>
    <edge id=":1045523881_5" function="internal">
        <lane id=":1045523881_5_0" index="0" disallow="tram rail_urban rail rail_electric rail_fast ship container cable_car subway aircraft wheelchair scooter drone" speed="3.65" length="4.67" shape="193.80,502.76 192.72,503.73 192.44,504.58 192.95,505.31 194.26,505.93"/>
    </edge>
    <edge id=":1045523881_6" function="internal">
        <lane id=":1045523881_6_0" index="0" disallow="tram rail_urban rail rail_electric rail_fast ship container cable_car subway aircraft wheelchair scooter drone" speed="5.56" length="12.44" shape="185.08,512.39 185.36,510.11 186.98,508.27 189.95,506.87 194.26,505.93"/>
    </edge>
    <edge id=":1045523881_7" function="internal">
        <lane id=":1045523881_7_0" index="0" disallow="tram rail_urban rail rail_electric rail_fast ship container cable_car subway aircraft wheelchair scooter drone" speed="5.56" length="15.88" shape="185.08,512.39 185.46,508.66 187.06,504.88 188.80,501.09 189.62,497.32"/>
    </edge>
    <edge id=":1045523881_8" function="internal">
        <lane id=":1045523881_8_0" index="0" disallow="tram rail_urban rail rail_electric rail_fast ship container cable_car subway aircraft wheelchair scooter drone" speed="3.71" length="4.91" shape="185.08,512.39 184.44,511.02 183.68,510.47 182.78,510.75 181.76,511.87"/>
    </edge>
    <edge id=":12942582995_0" function="internal">
        <lane id=":12942582995_0_0" index="0" disallow="tram rail_urban rail rail_electric rail_fast ship container cable_car subway aircraft wheelchair scooter drone" speed="5.56" length="0.12" width="3.00" shape="304.45,687.85 304.43,687.73"/>
    </edge>
    <edge id=":12942582995_1" function="internal">
        <lane id=":12942582995_1_0" index="0" disallow="tram rail_urban rail rail_electric rail_fast ship container cable_car subway aircraft wheelchair scooter drone" speed="3.53" length="4.38" width="3.00" shape="304.45,687.85 303.47,686.91 302.66,686.71 302.01,687.24 301.52,688.50"/>
    </edge>
    <edge id=":12942582995_2" function="internal">
        <lane id=":12942582995_2_0" index="0" disallow="tram rail_urban rail rail_electric rail_fast ship container cable_car subway aircraft wheelchair scooter drone" speed="5.56" length="0.35" width="3.00" shape="301.46,688.16 301.52,688.50"/>
    </edge>
    <edge id=":12942582995_3" function="internal">
        <lane id=":12942582995_3_0" index="0" disallow="tram rail_urban rail rail_electric rail_fast ship container cable_car subway aircraft wheelchair scooter drone" speed="3.53" length="4.38" width="3.00" shape="301.46,688.16 302.36,689.16 303.16,689.43 303.84,688.95 304.43,687.73"/>
    </edge>
    <edge id=":12943192748_0" function="internal">
        <lane id=":12943192748_0_0" index="0" disallow="tram rail_urban rail rail_electric rail_fast ship container cable_car subway aircraft wheelchair scooter drone" speed="3.53" length="4.38" width="3.00" shape="387.45,856.79 388.69,857.33 389.52,857.24 389.95,856.52 389.97,855.17"/>
    </edge>
    <edge id=":1986725957_0" function="internal">
        <lane id=":1986725957_0_0" index="0" disallow="tram rail_urban rail rail_electric rail_fast ship container cable_car subway aircraft wheelchair scooter drone" speed="5.56" length="14.41" width="3.00" shape="331.71,494.12 329.63,479.87"/>
    </edge>
    <edge id=":1986725957_1" function="internal">
        <lane id=":1986725957_1_0" index="0" disallow="tram rail_urban rail rail_electric rail_fast ship container cable_car subway aircraft wheelchair scooter drone" speed="5.56" length="13.97" shape="331.71,494.12 330.63,490.38 328.65,487.88 325.79,486.64 322.03,486.65"/>
    </edge>
    <edge id=":1986725957_2" function="internal">
        <lane id=":1986725957_2_0" index="0" disallow="tram rail_urban rail rail_electric rail_fast ship container cable_car subway aircraft wheelchair scooter drone" speed="3.53" length="4.38" width="3.00" shape="331.71,494.12 330.81,493.12 330.01,492.86 329.32,493.33 328.74,494.56"/>
    </edge>
    <edge id=":1986725957_3" function="internal">
        <lane id=":1986725957_3_0" index="0" disallow="tram rail_urban rail rail_electric rail_fast ship container cable_car subway aircraft wheelchair scooter drone" speed="5.56" length="8.96" width="3.00" shape="322.49,489.82 324.92,489.80 326.77,490.59 328.05,492.17 328.74,494.56"/>
    </edge>
    <edge id=":1986725957_4" function="internal">
        <lane id=":1986725957_4_0" index="0" disallow="tram rail_urban rail rail_electric rail_fast ship container cable_car subway aircraft wheelchair scooter drone" speed="5.56" length="13.95" width="3.00" shape="322.49,489.82 326.09,488.72 328.48,486.69 329.66,483.74 329.63,479.87"/>
    </edge>
    <edge id=":1986725957_5" function="internal">
        <lane id=":1986725957_5_0" index="0" disallow="tram rail_urban rail rail_electric rail_fast ship container cable_car subway aircraft wheelchair scooter drone" speed="3.65" length="4.67" shape="322.49,489.82 323.56,488.85 323.84,488.00 323.33,487.27 322.03,486.65"/>
    </edge>
    <edge id=":1986725957_6" function="internal">
        <lane id=":1986725957_6_0" index="0" disallow="tram rail_urban rail rail_electric rail_fast ship container cable_car subway aircraft wheelchair scooter drone" speed="5.56" length="8.95" shape="326.66,480.30 326.68,482.77 325.91,484.65 324.36,485.94 322.03,486.65"/>
    </edge>
    <edge id=":1986725957_7" function="internal">
        <lane id=":1986725957_7_0" index="0" disallow="tram rail_urban rail rail_electric rail_fast ship container cable_car subway aircraft wheelchair scooter drone" speed="5.56" length="14.40" width="3.00" shape="326.66,480.30 328.74,494.56"/>
    </edge>
    <edge id=":1986725957_8" function="internal">
        <lane id=":1986725957_8_0" index="0" disallow="tram rail_urban rail rail_electric rail_fast ship container cable_car subway aircraft wheelchair scooter drone" speed="3.53" length="4.38" width="3.00" shape="326.66,480.30 327.57,481.31 328.36,481.57 329.05,481.09 329.63,479.87"/>
    </edge>
    <edge id=":1986725967_0" function="internal">
        <lane id=":1986725967_0_0" index="0" disallow="tram rail_urban rail rail_electric rail_fast ship container cable_car subway aircraft wheelchair scooter drone" speed="5.56" length="13.93" shape="319.86,413.22 318.78,409.48 316.82,406.98 313.96,405.74 310.22,405.74"/>
    </edge>
    <edge id=":1986725967_1" function="internal">
        <lane id=":1986725967_1_0" index="0" disallow="tram rail_urban rail rail_electric rail_fast ship container cable_car subway aircraft wheelchair scooter drone" speed="3.53" length="4.38" width="3.00" shape="319.86,413.22 318.96,412.22 318.16,411.95 317.47,412.43 316.89,413.65"/>
    </edge>
    <edge id=":1986725967_2" function="internal">
        <lane id=":1986725967_2_0" index="0" disallow="tram rail_urban rail rail_electric rail_fast ship container cable_car subway aircraft wheelchair scooter drone" speed="5.56" length="8.93" width="3.00" shape="310.66,408.91 313.09,408.90 314.93,409.69 316.20,411.27 316.89,413.65"/>
    </edge>
    <edge id=":1986725967_3" function="internal">
        <lane id=":1986725967_3_0" index="0" disallow="tram rail_urban rail rail_electric rail_fast ship container cable_car subway aircraft wheelchair scooter drone" speed="3.65" length="4.67" shape="310.66,408.91 311.74,407.95 312.02,407.10 311.52,406.37 310.22,405.74"/>
    </edge>
    <edge id=":1986725970_0" function="internal">
        <lane id=":1986725970_0_0" index="0" disallow="tram rail_urban rail rail_electric rail_fast ship container cable_car subway aircraft wheelchair scooter drone" speed="5.56" length="14.86" shape="264.53,410.91 260.81,411.16 257.13,411.49 253.45,411.91 249.76,412.42"/>
    </edge>
    <edge id=":1986725970_1" function="internal">
        <lane id=":1986725970_1_0" index="0" disallow="tram rail_urban rail rail_electric rail_fast ship container cable_car subway aircraft wheelchair scooter drone" speed="5.56" length="14.51" shape="264.53,410.91 260.59,411.70 257.95,413.57 256.62,416.52 256.59,420.54"/>
    </edge>
    <edge id=":1986725970_2" function="internal">
        <lane id=":1986725970_2_0" index="0" disallow="tram rail_urban rail rail_electric rail_fast ship container cable_car subway aircraft wheelchair scooter drone" speed="3.65" length="4.67" shape="264.53,410.91 263.38,411.77 263.02,412.60 263.47,413.37 264.71,414.10"/>
    </edge>
    <edge id=":1986725970_3" function="internal">
        <lane id=":1986725970_3_0" index="0" disallow="tram rail_urban rail rail_electric rail_fast ship container cable_car subway aircraft wheelchair scooter drone" speed="5.56" length="9.04" shape="259.76,420.10 259.78,417.60 260.61,415.76 262.25,414.60 264.71,414.10"/>
    </edge>
    <edge id=":1986725970_4" function="internal">
        <lane id=":1986725970_4_0" index="0" disallow="tram rail_urban rail rail_electric rail_fast ship container cable_car subway aircraft wheelchair scooter drone" speed="5.56" length="14.43" shape="259.76,420.10 258.67,416.25 256.64,413.68 253.67,412.41 249.76,412.42"/>
    </edge>
    <edge id=":1986725970_5" function="internal">
        <lane id=":1986725970_5_0" index="0" disallow="tram rail_urban rail rail_electric rail_fast ship container cable_car subway aircraft wheelchair scooter drone" speed="3.65" length="4.67" shape="259.76,420.10 258.81,419.02 257.96,418.74 257.22,419.24 256.59,420.54"/>
    </edge>
    <edge id=":1986725970_6" function="internal">
        <lane id=":1986725970_6_0" index="0" disallow="tram rail_urban rail rail_electric rail_fast ship container cable_car subway aircraft wheelchair scooter drone" speed="5.56" length="9.22" shape="250.24,415.59 252.72,415.58 254.61,416.40 255.90,418.06 256.59,420.54"/>
    </edge>
    <edge id=":1986725970_7" function="internal">
        <lane id=":1986725970_7_0" index="0" disallow="tram rail_urban rail rail_electric rail_fast ship container cable_car subway aircraft wheelchair scooter drone" speed="5.56" length="14.55" shape="250.24,415.59 253.88,415.08 257.46,414.67 261.04,414.35 264.71,414.10"/>
    </edge>
    <edge id=":1986725970_8" function="internal">
        <lane id=":1986725970_8_0" index="0" disallow="tram rail_urban rail rail_electric rail_fast ship container cable_car subway aircraft wheelchair scooter drone" speed="3.65" length="4.67" shape="250.24,415.59 251.30,414.62 251.58,413.77 251.06,413.04 249.76,412.42"/>
    </edge>
    <edge id=":1986725980_0" function="internal">
        <lane id=":1986725980_0_0" index="0" disallow="tram rail_urban rail rail_electric rail_fast ship container cable_car subway aircraft wheelchair scooter drone" speed="5.56" length="3.85" shape="209.92,419.46 209.05,419.91 208.31,420.49 207.71,421.22 207.25,422.09"/>
    </edge>
    <edge id=":1986725980_1" function="internal">
        <lane id=":1986725980_1_0" index="0" disallow="tram rail_urban rail rail_electric rail_fast ship container cable_car subway aircraft wheelchair scooter drone" speed="3.65" length="4.67" shape="209.92,419.46 209.10,420.65 209.02,421.54 209.69,422.14 211.10,422.44"/>
    </edge>
    <edge id=":1986725980_2" function="internal">
        <lane id=":1986725980_2_0" index="0" disallow="tram rail_urban rail rail_electric rail_fast ship container cable_car subway aircraft wheelchair scooter drone" speed="4.18" length="1.28" shape="210.21,423.32 210.36,423.03 210.56,422.78 210.81,422.59 211.10,422.44"/>
    </edge>
    <edge id=":1986725980_3" function="internal">
        <lane id=":1986725980_3_0" index="0" disallow="tram rail_urban rail rail_electric rail_fast ship container cable_car subway aircraft wheelchair scooter drone" speed="3.65" length="4.67" shape="210.21,423.32 209.93,421.90 209.34,421.22 208.45,421.29 207.25,422.09"/>
    </edge>
    <edge id=":1986764532_0" function="internal">
        <lane id=":1986764532_0_0" index="0" disallow="tram rail_urban rail rail_electric rail_fast ship container cable_car subway aircraft wheelchair scooter drone" speed="5.56" length="14.10" width="3.00" shape="354.23,652.25 353.95,648.66 353.96,645.21 353.97,641.76 353.67,638.17"/>
    </edge>
    <edge id=":1986764532_1" function="internal">
        <lane id=":1986764532_1_0" index="0" disallow="tram rail_urban rail rail_electric rail_fast ship container cable_car subway aircraft wheelchair scooter drone" speed="5.56" length="12.53" width="3.00" shape="354.23,652.25 353.26,648.62 351.58,646.18 349.18,644.95 346.07,644.91"/>
    </edge>
    <edge id=":1986764532_2" function="internal">
        <lane id=":1986764532_2_0" index="0" disallow="tram rail_urban rail rail_electric rail_fast ship container cable_car subway aircraft wheelchair scooter drone" speed="5.56" length="13.71" width="3.00" shape="346.52,647.88 350.12,646.76 352.51,644.77 353.69,641.91 353.67,638.17"/>
    </edge>
    <edge id=":1986764532_3" function="internal">
        <lane id=":1986764532_3_0" index="0" disallow="tram rail_urban rail rail_electric rail_fast ship container cable_car subway aircraft wheelchair scooter drone" speed="3.53" length="4.38" width="3.00" shape="346.52,647.88 347.52,646.96 347.78,646.17 347.29,645.48 346.07,644.91"/>
    </edge>
    <edge id=":1986764532_4" function="internal">
        <lane id=":1986764532_4_0" index="0" disallow="tram rail_urban rail rail_electric rail_fast ship container cable_car subway aircraft wheelchair scooter drone" speed="5.56" length="8.89" width="3.00" shape="350.70,638.62 350.72,641.04 349.95,642.90 348.40,644.19 346.07,644.91"/>
    </edge>
    <edge id=":1986764532_5" function="internal">
        <lane id=":1986764532_5_0" index="0" disallow="tram rail_urban rail rail_electric rail_fast ship container cable_car subway aircraft wheelchair scooter drone" speed="3.53" length="4.38" width="3.00" shape="350.70,638.62 351.61,639.62 352.41,639.88 353.09,639.40 353.67,638.17"/>
    </edge>
    <edge id=":1986773228_0" function="internal">
        <lane id=":1986773228_0_0" index="0" disallow="tram rail_urban rail rail_electric rail_fast ship container cable_car subway aircraft wheelchair scooter drone" speed="5.56" length="9.07" shape="316.05,765.18 316.01,762.70 316.78,760.81 318.37,759.51 320.76,758.80"/>
    </edge>
    <edge id=":1986773228_1" function="internal">
        <lane id=":1986773228_1_0" index="0" disallow="tram rail_urban rail rail_electric rail_fast ship container cable_car subway aircraft wheelchair scooter drone" speed="5.56" length="11.35" width="3.00" shape="316.05,765.18 315.57,762.04 315.26,759.56 315.04,757.07 314.85,753.90"/>
    </edge>
    <edge id=":1986773228_2" function="internal">
        <lane id=":1986773228_2_0" index="0" disallow="tram rail_urban rail rail_electric rail_fast ship container cable_car subway aircraft wheelchair scooter drone" speed="3.53" length="4.38" width="3.00" shape="316.05,765.18 315.13,764.19 314.33,763.94 313.65,764.43 313.08,765.65"/>
    </edge>
    <edge id=":1986773228_3" function="internal">
        <lane id=":1986773228_3_0" index="0" disallow="tram rail_urban rail rail_electric rail_fast ship container cable_car subway aircraft wheelchair scooter drone" speed="5.56" length="11.66" width="3.00" shape="311.85,754.07 312.05,757.29 312.28,759.88 312.60,762.46 313.08,765.65"/>
    </edge>
    <edge id=":1986773228_4" function="internal">
        <lane id=":1986773228_4_0" index="0" disallow="tram rail_urban rail rail_electric rail_fast ship container cable_car subway aircraft wheelchair scooter drone" speed="5.56" length="11.62" shape="311.85,754.07 312.54,756.62 314.25,758.26 316.99,758.98 320.76,758.80"/>
    </edge>
    <edge id=":1986773228_5" function="internal">
        <lane id=":1986773228_5_0" index="0" disallow="tram rail_urban rail rail_electric rail_fast ship container cable_car subway aircraft wheelchair scooter drone" speed="3.53" length="4.38" width="3.00" shape="311.85,754.07 312.67,755.15 313.43,755.48 314.16,755.07 314.85,753.90"/>
    </edge>
    <edge id=":1986773230_0" function="internal">
        <lane id=":1986773230_0_0" index="0" disallow="tram rail_urban rail rail_electric rail_fast ship container cable_car subway aircraft wheelchair scooter drone" speed="5.56" length="10.81" width="6.00" shape="370.98,756.66 370.20,753.68 369.30,751.53 368.45,749.37 367.78,746.37"/>
    </edge>
    <edge id=":1986773230_1" function="internal">
        <lane id=":1986773230_1_0" index="0" disallow="tram rail_urban rail rail_electric rail_fast ship container cable_car subway aircraft wheelchair scooter drone" speed="3.53" length="4.38" width="3.00" shape="370.98,756.66 370.04,755.69 369.23,755.46 368.56,755.96 368.03,757.21"/>
    </edge>
    <edge id=":1986773230_2" function="internal">
        <lane id=":1986773230_2_0" index="0" disallow="tram rail_urban rail rail_electric rail_fast ship container cable_car subway aircraft wheelchair scooter drone" speed="5.56" length="8.72" width="3.00" shape="361.79,752.68 364.15,752.67 365.98,753.42 367.27,754.93 368.03,757.21"/>
    </edge>
    <edge id=":1986773230_3" function="internal">
        <lane id=":1986773230_3_0" index="0" disallow="tram rail_urban rail rail_electric rail_fast ship container cable_car subway aircraft wheelchair scooter drone" speed="5.56" length="9.87" width="6.00" shape="361.79,752.68 364.69,751.91 366.66,750.60 367.69,748.75 367.78,746.37"/>
    </edge>
    <edge id=":1987283852_0" function="internal">
        <lane id=":1987283852_0_0" index="0" disallow="tram rail_urban rail rail_electric rail_fast ship container cable_car subway aircraft wheelchair scooter drone" speed="5.56" length="9.03" shape="283.09,542.20 280.61,542.23 278.72,541.47 277.41,539.90 276.69,537.53"/>
    </edge>
    <edge id=":1987283852_1" function="internal">
        <lane id=":1987283852_1_0" index="0" disallow="tram rail_urban rail rail_electric rail_fast ship container cable_car subway aircraft wheelchair scooter drone" speed="5.56" length="14.40" shape="283.09,542.20 268.86,544.44"/>
    </edge>
    <edge id=":1987283852_2" function="internal">
        <lane id=":1987283852_2_0" index="0" disallow="tram rail_urban rail rail_electric rail_fast ship container cable_car subway aircraft wheelchair scooter drone" speed="3.65" length="4.67" shape="283.09,542.20 282.03,543.17 281.76,544.03 282.28,544.75 283.59,545.36"/>
    </edge>
    <edge id=":1987283852_3" function="internal">
        <lane id=":1987283852_3_0" index="0" disallow="tram rail_urban rail rail_electric rail_fast ship container cable_car subway aircraft wheelchair scooter drone" speed="5.56" length="14.40" shape="269.36,547.60 283.59,545.36"/>
    </edge>
    <edge id=":1987283852_4" function="internal">
        <lane id=":1987283852_4_0" index="0" disallow="tram rail_urban rail rail_electric rail_fast ship container cable_car subway aircraft wheelchair scooter drone" speed="5.56" length="14.19" shape="269.36,547.60 273.08,546.46 275.54,544.40 276.74,541.43 276.69,537.53"/>
    </edge>
    <edge id=":1987283852_5" function="internal">
        <lane id=":1987283852_5_0" index="0" disallow="tram rail_urban rail rail_electric rail_fast ship container cable_car subway aircraft wheelchair scooter drone" speed="3.65" length="4.67" shape="269.36,547.60 270.42,546.63 270.69,545.77 270.17,545.05 268.86,544.44"/>
    </edge>
    <edge id=":1987283852_6" function="internal">
        <lane id=":1987283852_6_0" index="0" disallow="tram rail_urban rail rail_electric rail_fast ship container cable_car subway aircraft wheelchair scooter drone" speed="5.56" length="9.04" shape="273.53,538.03 273.56,540.51 272.79,542.40 271.23,543.71 268.86,544.44"/>
    </edge>
    <edge id=":1987283852_7" function="internal">
        <lane id=":1987283852_7_0" index="0" disallow="tram rail_urban rail rail_electric rail_fast ship container cable_car subway aircraft wheelchair scooter drone" speed="5.56" length="14.20" shape="273.53,538.03 274.66,541.75 276.72,544.21 279.69,545.41 283.59,545.36"/>
    </edge>
    <edge id=":1987283852_8" function="internal">
        <lane id=":1987283852_8_0" index="0" disallow="tram rail_urban rail rail_electric rail_fast ship container cable_car subway aircraft wheelchair scooter drone" speed="3.65" length="4.67" shape="273.53,538.03 274.50,539.09 275.35,539.36 276.08,538.84 276.69,537.53"/>
    </edge>
    <edge id=":1987283909_0" function="internal">
        <lane id=":1987283909_0_0" index="0" disallow="tram rail_urban rail rail_electric rail_fast ship container cable_car subway aircraft wheelchair scooter drone" speed="5.56" length="9.13" shape="193.55,529.51 191.02,529.53 189.09,528.76 187.76,527.20 187.03,524.85"/>
    </edge>
    <edge id=":1987283909_1" function="internal">
        <lane id=":1987283909_1_0" index="0" disallow="tram rail_urban rail rail_electric rail_fast ship container cable_car subway aircraft wheelchair scooter drone" speed="5.56" length="14.23" shape="193.55,529.51 189.81,530.62 187.33,532.67 186.12,535.64 186.18,539.55"/>
    </edge>
    <edge id=":1987283909_2" function="internal">
        <lane id=":1987283909_2_0" index="0" disallow="tram rail_urban rail rail_electric rail_fast ship container cable_car subway aircraft wheelchair scooter drone" speed="3.65" length="4.67" shape="193.55,529.51 192.48,530.48 192.20,531.33 192.72,532.06 194.02,532.68"/>
    </edge>
    <edge id=":1987283909_3" function="internal">
        <lane id=":1987283909_3_0" index="0" disallow="tram rail_urban rail rail_electric rail_fast ship container cable_car subway aircraft wheelchair scooter drone" speed="5.56" length="9.03" shape="189.34,539.04 189.30,536.57 190.07,534.68 191.64,533.38 194.02,532.68"/>
    </edge>
    <edge id=":1987283909_4" function="internal">
        <lane id=":1987283909_4_0" index="0" disallow="tram rail_urban rail rail_electric rail_fast ship container cable_car subway aircraft wheelchair scooter drone" speed="5.56" length="14.39" shape="189.34,539.04 187.03,524.85"/>
    </edge>
    <edge id=":1987283909_5" function="internal">
        <lane id=":1987283909_5_0" index="0" disallow="tram rail_urban rail rail_electric rail_fast ship container cable_car subway aircraft wheelchair scooter drone" speed="3.65" length="4.67" shape="189.34,539.04 188.36,537.98 187.51,537.71 186.78,538.24 186.18,539.55"/>
    </edge>
    <edge id=":1987283909_6" function="internal">
        <lane id=":1987283909_6_0" index="0" disallow="tram rail_urban rail rail_electric rail_fast ship container cable_car subway aircraft wheelchair scooter drone" speed="5.56" length="14.35" shape="183.87,525.38 186.18,539.55"/>
    </edge>
    <edge id=":1987283909_7" function="internal">
        <lane id=":1987283909_7_0" index="0" disallow="tram rail_urban rail rail_electric rail_fast ship container cable_car subway aircraft wheelchair scooter drone" speed="5.56" length="14.23" shape="183.87,525.38 185.01,529.06 187.08,531.50 190.09,532.71 194.02,532.68"/>
    </edge>
    <edge id=":1987283909_8" function="internal">
        <lane id=":1987283909_8_0" index="0" disallow="tram rail_urban rail rail_electric rail_fast ship container cable_car subway aircraft wheelchair scooter drone" speed="3.65" length="4.67" shape="183.87,525.38 184.86,526.43 185.72,526.69 186.44,526.16 187.03,524.85"/>
    </edge>
    <edge id=":1987283928_0" function="internal">
        <lane id=":1987283928_0_0" index="0" disallow="tram rail_urban rail rail_electric rail_fast ship container cable_car subway aircraft wheelchair scooter drone" speed="5.56" length="15.24" shape="192.71,466.32 188.36,480.93"/>
    </edge>
    <edge id=":1987283928_1" function="internal">
        <lane id=":1987283928_1_0" index="0" disallow="tram rail_urban rail rail_electric rail_fast ship container cable_car subway aircraft wheelchair scooter drone" speed="5.56" length="16.32" shape="192.71,466.32 191.91,471.08 192.98,474.24 195.94,475.79 200.76,475.73"/>
    </edge>
    <edge id=":1987283928_2" function="internal">
        <lane id=":1987283928_2_0" index="0" disallow="tram rail_urban rail rail_electric rail_fast ship container cable_car subway aircraft wheelchair scooter drone" speed="3.65" length="4.67" shape="192.71,466.32 193.12,467.70 193.76,468.32 194.64,468.18 195.77,467.28"/>
    </edge>
    <edge id=":1987283928_3" function="internal">
        <lane id=":1987283928_3_0" index="0" disallow="tram rail_urban rail rail_electric rail_fast ship container cable_car subway aircraft wheelchair scooter drone" speed="5.56" length="9.17" shape="200.29,472.56 197.58,472.59 195.92,471.72 195.32,469.95 195.77,467.28"/>
    </edge>
    <edge id=":1987283928_4" function="internal">
        <lane id=":1987283928_4_0" index="0" disallow="tram rail_urban rail rail_electric rail_fast ship container cable_car subway aircraft wheelchair scooter drone" speed="5.56" length="15.43" shape="200.29,472.56 195.78,473.65 192.29,475.40 189.82,477.83 188.36,480.93"/>
    </edge>
    <edge id=":1987283928_5" function="internal">
        <lane id=":1987283928_5_0" index="0" disallow="tram rail_urban rail rail_electric rail_fast ship container cable_car subway aircraft wheelchair scooter drone" speed="3.65" length="4.67" shape="200.29,472.56 199.22,473.53 198.95,474.38 199.46,475.11 200.76,475.73"/>
    </edge>
    <edge id=":1987283928_6" function="internal">
        <lane id=":1987283928_6_0" index="0" disallow="tram rail_urban rail rail_electric rail_fast ship container cable_car subway aircraft wheelchair scooter drone" speed="5.56" length="11.74" shape="191.45,481.78 192.53,479.58 194.45,477.84 197.19,476.55 200.76,475.73"/>
    </edge>
    <edge id=":1987283928_7" function="internal">
        <lane id=":1987283928_7_0" index="0" disallow="tram rail_urban rail rail_electric rail_fast ship container cable_car subway aircraft wheelchair scooter drone" speed="5.56" length="15.13" shape="191.45,481.78 195.77,467.28"/>
    </edge>
    <edge id=":1987283928_8" function="internal">
        <lane id=":1987283928_8_0" index="0" disallow="tram rail_urban rail rail_electric rail_fast ship container cable_car subway aircraft wheelchair scooter drone" speed="3.65" length="4.67" shape="191.45,481.78 190.99,480.41 190.33,479.81 189.45,479.98 188.36,480.93"/>
    </edge>
    <edge id=":1987283930_0" function="internal">