<?xml version="1.0" encoding="UTF-8"?>

<!-- generated on 2026-02-20T11:24:18.619985+01:00 by Eclipse SUMO netedit 1.26.0
-->

<additional xmlns:xsi="http://www.w3.org/2001/XMLSchema-instance" xsi:noNamespaceSchemaLocation="http://sumo.dlr.de/xsd/additional_file.xsd">
    <!-- VTypes -->
    <vType id="reroutingType" length="5.00" minGap="2.50" maxSpeed="13.89" accel="1.5" decel="4.5" sigma="0.5">
        <param key="device.rerouting.period" value="30"/>
        <param key="has.rerouting.device" value="true"/>
    </vType>
    <!-- Rerouter -->
    <rerouter id="infinite_wandering" pos="316.11,487.75" edges="188051766 -188660020#5 -188106458#1 -85949608#1"/>
</additional>
